%nprocshared=68
%mem=90GB
%chk=1-a.chk
# opt=(maxcycles=85) freq=noraman b3lyp/gen pseudo=read nosymm

Title Card Required

0 1
 Rh                 3.69389944    4.25473363    2.68482768
 O                  7.65313920    7.02196810    5.09926560
 O                  7.91296800    4.81832120    5.71632480
 C                  1.79222820    3.58073870    2.15505600
 H                  1.68002940    3.25071670    1.22791680
 H                  1.30898600    3.04070270    2.82948000
 C                  1.77746520    4.98033200    2.33490240
 H                  1.28241260    5.31935460    3.12250560
 H                  1.65444020    5.53086870    1.52249280
 C                  3.15632940    4.19277950    4.79383680
 H                  3.78523320    4.62780850    5.42174880
 H                  2.20460800    4.35779050    5.01089280
 C                  3.48406800    2.89969330    4.37832960
 H                  2.74001280    2.24864990    4.33336800
 H                  4.32063800    2.51716780    4.74422400
 C                  5.57746140    5.53236880    2.38451520
 C                  5.92389980    4.14927660    2.64033120
 C                  5.42294200    3.35722380    1.57210560
 H                  5.55187220    2.42266150    1.45737600
 C                  4.70939700    4.20028000    0.72093600
 C                  4.80486440    5.53986930    1.21396320
 H                  4.41020020    6.30642040    0.81396000
 C                  6.04987740    6.72344820    3.20777760
 H                  6.40123680    7.41949460    2.58400000
 C                  7.21713860    6.18041200    4.02638880
 H                  7.98973560    6.02440160    3.41243040
 C                  6.88644740    4.87082470    4.72716960
 H                  5.99771480    4.95183010    5.17833600
 C                  6.85790560    3.70374690    3.75972000
 H                  6.45241520    2.91319420    4.22173920
 C                  8.01335640    6.15941060    6.19074720
 C                  7.05179300    6.42792850    7.33029120
 C                  6.51638820    5.38535900    8.07758400
 H                  6.76735920    4.49129940    7.87913280
 C                  5.61879780    5.63437560    9.11170080
 H                  5.25562800    4.91132740    9.61092960
 C                  5.25365960    6.94696310    9.41247840
 H                  4.64247140    7.12397490   10.11791040
 C                  5.79004860    7.99103270    8.67448800
 H                  5.54203020    8.88659240    8.87448960
 C                  6.68567060    7.73601570    7.64812320
 H                  7.05474560    8.46056400    7.15664640
 C                  4.93871560    7.35799050    4.06359840
 H                  4.24682300    7.73001530    3.47754720
 H                  5.31861680    8.07353820    4.61554080
 H                  4.54306720    6.67394490    4.64344800
 C                  8.23972240    3.31072070    3.23258400
 H                  8.15016020    2.55767050    2.61087360
 H                  8.81252680    3.04670310    3.98297760
 H                  8.64029180    4.07277150    2.76746400
 C                  9.45708382    6.45302659    6.63912294
 C                 10.17355815    5.49411613    7.35580048
 C                 10.04848446    7.67753282    6.32867505
 C                 11.48089809    5.75999931    7.76248234
  H                  9.70675819    4.52913558    7.60105978
 C                 11.35655748    7.94327189    6.73455389
 H                  9.48399661    8.43334801    5.76367427
 C                 12.07275604    6.98482334    7.45147299
 H                 12.04547525    5.00446813    8.32792180
 H                 11.82273508    8.90866997    6.48928014
 H                 13.10357960    7.19421406    7.77218259
 H                  4.17802903    3.89551431   -0.15637008

C O N H 0
6-31G(d)
****
Rh 0
LANL2DZ
****

Rh 0
LANL2DZ




